C |------------------------------------------------------------------|
C | Arquivo gerado automaticamente pela rotina GeraBaseATP           |
C | em 06/03/2022 07:36:02                                           |
C |                                                                  |
C | Rotina desenvolvida por Bernard Küsel                            |
C | Versão 1.05 Jul/2014                                             |
C |------------------------------------------------------------------|
BEGIN NEW DATA CASE
C ------------------------------------------------------------------------------
C Generated by ATPDraw março, 5, 2022
C from project 00.EVOLTZ_LEVE_1us_Original.acp
C ATPDraw developed by H. K. Høidalen at NTNU - NORWAY 1999-2020
C ------------------------------------------------------------------------------
RELATIVE TACS DIMENSIONS
C      |       |       |       |       |       |       |       |       |        
C 345678901234567890123456789012345678901234567890123456789012345678901234567890
       1      .1      .1      .1      .1     150     150       2       1
$DUMMY, XYZ000
C  dT  >< Tmax >< Xopt >< Copt ><Epsiln>
   1.E-6     .65     60.     60.        
     500       1       1       1       1       0       0       1       0
$PARAMETER
FREQNI =60.0 $$
VNOM2I =20000.0 $$
VNOM1I =500000.0 $$
INOM1I =115.47 $$
BTRFI =-20.0 $$
BFILTI =0.3177 $$
BTCRTI =-1.582 $$
BTSC1I =1.1206 $$
BTSC2I =1.1206 $$
BTSC3I =0.0 $$
VNOM2___=VNOM2I
VNOM1_____=VNOM1I
VNOM1___=VNOM1I
INOM1___=INOM1I
FREQN___=FREQNI
BTSC3___=BTSC3I
BTSC2___=BTSC2I
BTSC1___=BTSC1I
BTRF____=BTRFI
BTCRT___=BTCRTI
BFILT___=BFILTI
TAM11I = 5.0 $$
TAM12I = 5.0 $$
TAM13I = 10.0 $$
TAM14I = 36.1 $$
TAM21I = 10.0 $$
TAM22I = 92.0 $$
TAM31I = 10.0 $$
TAM32I = 111.7 $$
TAM41I = 10.0 $$
TAM42I = 33.65 $$
TAM43I = 6.5500 $$
TAM44I = 3.4500 $$
TREC11______=TAM11I
TREC12______=TAM12I
TREC13______=TAM13I
TREC14______=TAM14I
TREC21______=TAM21I
TREC22______=TAM22I
TREC31______=TAM31I
TREC32______=TAM32I
TREC41______=TAM41I
TREC42______=TAM42I
TREC43______=TAM43I
TREC44______=TAM44I
FALTAA = 'T4N32A'
FALTAB = 'T4N32B'
FALTAC = 'T4N32C'
TF___A = 0.5400 $$
TF___B = 0.5400 $$
TF___C = 0.5400 $$
RG___A = 1.E12 $$
RG___B = 1.E12 $$
RG___C = 1.E12 $$
RF__AB = 50.0000 $$
RF__AC = 50.0000 $$
RF__BC = 50.0000 $$
TCL_FASEAA=TF___A
TCL_FASEAB=TF___B
TCL_FASEAC=TF___C
RG_________FASEA=RG___A
RG_________FASEB=RG___B
RG_________FASEC=RG___C
RF____FASEAFASEB=RF__AB
RF____FASEAFASEC=RF__AC
RF____FASEBFASEC=RF__BC
BLANK $PARAMETER
/TACS
TACS HYBRID
98XX0521  =    2300.
98XX0199  =    529.5
98XX0323  = XX0322 + XX0321
98XX0200  =      0.0
98XX0446  =XX0454 .OR. XX0449
27XX0437
98XX0447  =       1.
98XX0381  =      0.0
98XX042353                +XX0437                                   
98XX042453                +XX0420                                   
98XX041453                +XX0413                                   
27XX0413
 0XX0320  +XX0323                                     1.            XX0325XX0324
27XX0430
27XX0386
98XX042753                                +XX0426                   
98XX042553                +XX0386                                   
98XX042853                +XX0388                                   
11XX0329                                                           -1.      1.E3
27XX0426
27XX0388
98XX042953                +XX0430                                   
98XX043153                +XX0432                                   
98XX043453                +XX0433                                   
98XX043553                +XX0436                                   
27XX0433
27XX0436
27XX0432
98XX0450  =       1.
98XX0444  =       1.
11XX0537          2.                                               -1.      1.E3
11XX0520         .05                                               -1.      1.E3
98XX0518  =       1.
98XX0330  =   63700.
98XX0324  =      1.1
98XX0461  =      0.0
27XX0542
11XX0515          2.                                               -1.      1.E3
98XX0325  =     0.95
98XX0519  =      0.0
98XX0522  =       1.
98XX0523  =      0.6
98XX0317  =    0.005
98XX0524  =      0.7
98XX0525  =     0.15
98XX0517  =  0.00667
11XX0516          2.                                               -1.      1.E3
27XX0383
98XX0478  =       1.
98XX0483  =       1.
98XX0488  =       1.
98XX049266                +X0195B                    60.
98XX049366                +X0195C                    60.
98XX049166                +X0195A                    60.
98XX0495  = XX0491 / XX0494
98XX0490  = XX0492 / XX0494
98XX0460  = XX0493 / XX0494
C sqrt(3)
98XX0297  = 1.732051
90X0195A                                                                    1.E3
90X0195B                                                                    1.E3
90X0195C                                                                    1.E3
98XX041963        +XX0489 +XX0496 +XX0424                  -1.
98XX030066+X0195A                         -X0195B    60.
98XX0526  = XX0300 / XX0536
98XX0498  =XX0499 .OR. XX0497
98XX0282  =XX0458 .OR. XX0498
98XX0499  =XX0501 .OR. XX0500
98XX0458  =XX0446 .OR. XX0443
98XX030466+X0195B                         -X0195C    60.
98XX0527  = XX0304 / XX0536
98XX030866+X0195C                         -X0195A    60.
98XX0528  = XX0308 / XX0536
98XX0494  = XX0536 / XX0297
98XX048963        +XX0526 +XX0527 +XX0528                  -1.
98XX049663        +XX0460 +XX0490 +XX0495                  -1.
11XX0328                                                           -1.      1.E3
98XX032157+XX0200
             10.
             20.
           9999.
27XX0535
98XX0352  =      0.0
98XX0538  =   57600.
98XX0539  =   37200.
98XX0540  =    1.7E4
11XX0536  VNOM1_____                                               -1.      1.E3
27XX0420
98XX0541  =      0.0
98XX0322  = XX0199 / XX0316
98XX0316  =     500.
98XX034753                                +XX0353                   
98XX033553                                +XX0334                   
27XX0319
27XX0334
27XX0353
27XX0455
27XX0456
27XX0457
27XX0445
27XX0448
27XX0451
$LISTOFF
98XX080262                +XX0383                                   XX0800XX0801
$LISTON
$LISTOFF
98XX0800  =      0.0
$LISTON
$LISTOFF
98XX080562                +XX0803                                   XX0804      
$LISTON
$LISTOFF
23XX0801          1.      .001    2.5E-5                                    1.E3
$LISTON
$LISTOFF
98XX0712  = XX0805 + XX0831
$LISTON
$LISTOFF
98XX0835  = XX0829 .GE. XX0826
$LISTON
$LISTOFF
98XX0837  =XX0804 .AND. XX0834
$LISTON
$LISTOFF
98XX0807  = XX0802 - XX0806
$LISTON
$LISTOFF
98XX080653                +XX0802                         .001   .01
$LISTON
$LISTOFF
98XX081160+XX0718 +XX0808 +XX0719                                   XX0807XX0809
$LISTON
$LISTOFF
98XX0718  =      0.0
$LISTON
$LISTOFF
98XX0808  =       1.
$LISTON
$LISTOFF
98XX0719  =       1.
$LISTON
$LISTOFF
98XX0809  =   0.0025
$LISTON
$LISTOFF
98XX0720  =    -1. * XX0809
$LISTON
$LISTOFF
98XX0810  = XX0807 .GE. XX0720
$LISTON
$LISTOFF
98XX0812  =XX0814 .AND. XX0810
$LISTON
$LISTOFF
98XX0813  =XX0812 .OR. XX0811
$LISTON
$LISTOFF
 0XX0814                  +XX0813                     1.    3.    3.      
$LISTON
$LISTOFF
98XX0815  = .NOT. XX0813
$LISTON
$LISTOFF
98XX0804  =XX0818 .OR. XX0819
$LISTON
$LISTOFF
98XX081753                +XX0815                         .001   .01
$LISTON
$LISTOFF
98XX081653                +XX0813                         .001   .01
$LISTON
$LISTOFF
98XX0818  =XX0816 .AND. XX0815
$LISTON
$LISTOFF
98XX0819  =XX0817 .AND. XX0813
$LISTON
$LISTOFF
98XX082062                +XX0806                                   XX0804      
$LISTON
$LISTOFF
98XX082153                +XX0820                         .001   .01
$LISTON
$LISTOFF
98XX082262                +XX0821                                   XX0804      
$LISTON
$LISTOFF
98XX0823  = XX0820 - XX0822
$LISTON
$LISTOFF
98XX0824  = ABS( XX0823 )
$LISTON
$LISTOFF
98XX0825  = XX0858 * XX0535
$LISTON
$LISTOFF
98XX0858  =     0.05
$LISTON
$LISTOFF
98XX0827  = XX0824 .GT. XX0825
$LISTON
$LISTOFF
98XX0830  =XX0804 .AND. XX0827
$LISTON
$LISTOFF
98XX0752  =XX0835 .AND. XX0836
$LISTON
$LISTOFF
98XX0826  =trunc(XX0712)
$LISTON
$LISTOFF
98XX0828  =trunc(1/(2*0.001*XX0863))
$LISTON
$LISTOFF
98XX086461+XX0868 +XX0855                                         1.      XX0865
$LISTON
$LISTOFF
98XX0862  =       5.
$LISTON
$LISTOFF
88XX083265                +XX0831                                   XX0804XX0833
$LISTON
$LISTOFF
98XX0831  =DELTAT/0.001
$LISTON
$LISTOFF
98XX0762  = XX0832 .GT. XX0761
$LISTON
$LISTOFF
 0XX0833                  +XX0762                     1.          1.      
$LISTON
$LISTOFF
98XX0761  =     250.
$LISTON
$LISTOFF
98XX0836  = XX0826 .GE. XX0828
$LISTON
$LISTOFF
98XX080353                +XX0832                         .001   .01
$LISTON
$LISTOFF
98XX087658                +XX0872                     1.          1.XX0830XX0875
$LISTON
$LISTOFF
98XX0872  =       1.
$LISTON
$LISTOFF
98XX0875  =      0.0
$LISTON
$LISTOFF
98XX0877  =      0.0
$LISTON
$LISTOFF
98XX0840  = XX0876 .GT. XX0877
$LISTON
$LISTOFF
98XX0863  =      55.
$LISTON
$LISTOFF
98XX0838  =XX0827 .AND. XX0837
$LISTON
$LISTOFF
98XX088658                +XX0881                     1.          1.XX0884XX0885
$LISTON
$LISTOFF
98XX0884  = .NOT. XX0838
$LISTON
$LISTOFF
98XX0885  =      0.1
$LISTON
$LISTOFF
98XX0881  =      -1.
$LISTON
$LISTOFF
98XX0860  = XX0886 .GE. XX0887
$LISTON
$LISTOFF
98XX0887  =      0.0
$LISTON
$LISTOFF
98XX0847  = .NOT. XX0860
$LISTON
$LISTOFF
98XX0839  =    -1. * XX0824
$LISTON
$LISTOFF
98XX084461+XX0839                                                 1.      XX0841
$LISTON
$LISTOFF
98XX0841  =XX0840 .AND. XX0854
$LISTON
$LISTOFF
98XX0845  = XX0859 .GE. XX0843
$LISTON
$LISTOFF
98XX0843  =      0.3
$LISTON
$LISTOFF
 1XX0318                  +XX0864                   120.   .03    1.      XX0867
        1.                                                                      
                  1.                                                            
$LISTON
$LISTOFF
98XX0859  =TIMEX
$LISTON
$LISTOFF
98XX0842  = XX0844 * XX0845
$LISTON
$LISTOFF
88XX085165                +XX0786                                   XX0846XX0848
$LISTON
$LISTOFF
98XX088958                +XX0892                     1.          1.XX0905XX0895
$LISTON
$LISTOFF
 0XX0896  +XX0889                                     1.          1.      
$LISTON
$LISTOFF
98XX0895  =       1.
$LISTON
$LISTOFF
98XX0897  =      -1.
$LISTON
$LISTOFF
98XX0892  = XX0897 / XX0898
$LISTON
$LISTOFF
98XX0905  = .NOT. XX0899
$LISTON
$LISTOFF
98XX0900  = .NOT. XX0896
$LISTON
$LISTOFF
98XX0846  = .NOT. XX0900
$LISTON
$LISTOFF
98XX089959                +XX0847                     1.
$LISTON
$LISTOFF
98XX0898  =    0.001
$LISTON
$LISTOFF
98XX0786  =       1.
$LISTON
$LISTOFF
98XX0849  =XX0838 .AND. XX0853
$LISTON
$LISTOFF
98XX0848  = .NOT. XX0850
$LISTON
$LISTOFF
98XX090758                +XX0910                     1.          1.XX0923XX0913
$LISTON
$LISTOFF
 0XX0914  +XX0907                                     1.          1.      
$LISTON
$LISTOFF
98XX0913  =       1.
$LISTON
$LISTOFF
98XX0915  =      -1.
$LISTON
$LISTOFF
98XX0910  = XX0915 / XX0916
$LISTON
$LISTOFF
98XX0923  = .NOT. XX0917
$LISTON
$LISTOFF
98XX0918  = .NOT. XX0914
$LISTON
$LISTOFF
98XX0850  = .NOT. XX0918
$LISTON
$LISTOFF
98XX091759                +XX0849                     1.
$LISTON
$LISTOFF
98XX0916  =      0.0
$LISTON
$LISTOFF
98XX0854  =XX0838 .AND. XX0852
$LISTON
$LISTOFF
98XX0852  = XX0851 .GE. XX0861
$LISTON
$LISTOFF
98XX0861  =       3.
$LISTON
$LISTOFF
98XX0853  = .NOT. XX0852
$LISTON
$LISTOFF
98XX0855  = XX0842 + XX0857
$LISTON
$LISTOFF
98XX0857  =     1. * XX0856
$LISTON
$LISTOFF
98XX0856  = .NOT. XX0845
$LISTON
$LISTOFF
98XX0829  =trunc(1/(2*0.001*XX0862))
$LISTON
$LISTOFF
98XX0789  = .NOT. XX0866
$LISTON
$LISTOFF
98XX093258                +XX0927                     1.          1.XX0930XX0931
$LISTON
$LISTOFF
98XX0930  = .NOT. XX0752
$LISTON
$LISTOFF
98XX0931  =   0.0025
$LISTON
$LISTOFF
98XX0927  =      -1.
$LISTON
$LISTOFF
98XX0834  = XX0932 .GE. XX0933
$LISTON
$LISTOFF
98XX0933  =      0.0
$LISTON
$LISTOFF
98XX079053+XX0839                                                   XX0839
$LISTON
$LISTOFF
98XX0865  = XX0789 + XX0795
$LISTON
$LISTOFF
98XX0795  =       1.
$LISTON
$LISTOFF
98XX0796  =      0.8
$LISTON
$LISTOFF
98XX093558                +XX0938                     1.          1.XX0951XX0941
$LISTON
$LISTOFF
 0XX0942  +XX0935                                     1.          1.      
$LISTON
$LISTOFF
98XX0941  =       1.
$LISTON
$LISTOFF
98XX0943  =      -1.
$LISTON
$LISTOFF
98XX0938  = XX0943 / XX0944
$LISTON
$LISTOFF
98XX0951  = .NOT. XX0945
$LISTON
$LISTOFF
98XX0946  = .NOT. XX0942
$LISTON
$LISTOFF
98XX0866  = .NOT. XX0946
$LISTON
$LISTOFF
98XX094559                +XX0502                     1.
$LISTON
$LISTOFF
98XX0944  =    0.001
$LISTON
$LISTOFF
98XX0868  =   -0.813
$LISTON
$LISTOFF
98XX079857+XX0797
           0.301
           9999.
$LISTON
$LISTOFF
98XX0799  = XX0796 + XX0798
$LISTON
$LISTOFF
98XX0797  =      0.2
$LISTON
$LISTOFF
98XX0867  =      0.8
$LISTON
27XX0449
27XX0454
27XX0443
27XX0501
27XX0500
27XX0497
$LISTOFF
98XX1031  =XX1004 .AND. XX1003
$LISTON
$LISTOFF
98XX105658                +XX1059                     1.          1.XX1072XX1062
$LISTON
$LISTOFF
 0XX1063  +XX1056                                     1.          1.      
$LISTON
$LISTOFF
98XX1062  =       1.
$LISTON
$LISTOFF
98XX1064  =      -1.
$LISTON
$LISTOFF
98XX1059  = XX1064 / XX1065
$LISTON
$LISTOFF
98XX1072  = .NOT. XX1066
$LISTON
$LISTOFF
98XX1067  = .NOT. XX1063
$LISTON
$LISTOFF
98XX1005  = .NOT. XX1067
$LISTON
$LISTOFF
98XX106659                +XX1006                     1.
$LISTON
$LISTOFF
98XX1065  =    0.002
$LISTON
$LISTOFF
98XX0953  =XX1005 .OR. XX1006
$LISTON
$LISTOFF
98XX107458                +XX1077                     1.          1.XX1090XX1080
$LISTON
$LISTOFF
 0XX1081  +XX1074                                     1.          1.      
$LISTON
$LISTOFF
98XX1080  =       1.
$LISTON
$LISTOFF
98XX1082  =      -1.
$LISTON
$LISTOFF
98XX1077  = XX1082 / XX1083
$LISTON
$LISTOFF
98XX1090  = .NOT. XX1084
$LISTON
$LISTOFF
98XX1085  = .NOT. XX1081
$LISTON
$LISTOFF
98XX1007  = .NOT. XX1085
$LISTON
$LISTOFF
98XX108459                +XX1054                     1.
$LISTON
$LISTOFF
98XX1083  =     0.01
$LISTON
$LISTOFF
98XX1028  =XX1026 .AND. XX1027
$LISTON
$LISTOFF
98XX101262                +XX0318                                   XX1010XX1011
$LISTON
$LISTOFF
98XX1010  =      0.0
$LISTON
$LISTOFF
23XX1011          1.      .001    2.5E-5                                    1.E3
$LISTON
$LISTOFF
98XX101553                +XX1012                         .001   .01
$LISTON
$LISTOFF
98XX101453                +XX1012                                 1.XX1013
$LISTON
$LISTOFF
98XX1013  =    0.005
$LISTON
$LISTOFF
98XX1027  = XX1014 .EQ. XX1012
$LISTON
$LISTOFF
98XX0967  = XX1012 - XX1015
$LISTON
$LISTOFF
98XX1003  = XX1017 .GE. XX1016
$LISTON
$LISTOFF
98XX1016  =      0.3
$LISTON
$LISTOFF
98XX1017  =TIMEX
$LISTON
$LISTOFF
98XX1004  = XX0968 .GE. XX1018
$LISTON
$LISTOFF
98XX1018  =     0.05
$LISTON
$LISTOFF
98XX0968  = ABS( XX0967 )
$LISTON
$LISTOFF
98XX0969  = XX1012 .EQ. XX1015
$LISTON
$LISTOFF
98XX1020  = .NOT. XX0969
$LISTON
$LISTOFF
98XX1021  =XX1020 .AND. XX1031
$LISTON
$LISTOFF
98XX1006  =XX1008 .AND. XX1021
$LISTON
$LISTOFF
98XX109258                +XX1095                     1.          1.XX1108XX1098
$LISTON
$LISTOFF
 0XX1099  +XX1092                                     1.          1.      
$LISTON
$LISTOFF
98XX1098  =       1.
$LISTON
$LISTOFF
98XX1100  =      -1.
$LISTON
$LISTOFF
98XX1095  = XX1100 / XX1101
$LISTON
$LISTOFF
98XX1108  = .NOT. XX1102
$LISTON
$LISTOFF
98XX1103  = .NOT. XX1099
$LISTON
$LISTOFF
98XX1022  = .NOT. XX1103
$LISTON
$LISTOFF
98XX110259                +XX1006                     1.
$LISTON
$LISTOFF
98XX1101  =      10.
$LISTON
$LISTOFF
98XX1026  =XX1022 .OR. XX1023
$LISTON
$LISTOFF
98XX1023  = XX0970 .GE. XX1012
$LISTON
$LISTOFF
98XX0970  =    0.031
$LISTON
$LISTOFF
98XX0971  =     0.95
$LISTON
$LISTOFF
98XX0972  =      1.1
$LISTON
$LISTOFF
98XX1009  = XX0971 .GT. XX0424
$LISTON
$LISTOFF
98XX1024  = XX0424 .GT. XX0972
$LISTON
$LISTOFF
98XX0973  =XX1009 .OR. XX1024
$LISTON
$LISTOFF
98XX111658                +XX1112                     1.          1.XX0973XX1115
$LISTON
$LISTOFF
98XX1112  =       1.
$LISTON
$LISTOFF
98XX1115  =      0.0
$LISTON
$LISTOFF
98XX1117  =     0.06
$LISTON
$LISTOFF
98XX0974  = XX1116 .GT. XX1117
$LISTON
$LISTOFF
98XX1025  = .NOT. XX0975
$LISTON
$LISTOFF
98XX112658                +XX1121                     1.          1.XX1124XX1125
$LISTON
$LISTOFF
98XX1124  = .NOT. XX0974
$LISTON
$LISTOFF
98XX1125  =      0.1
$LISTON
$LISTOFF
98XX1121  =      -1.
$LISTON
$LISTOFF
98XX0975  = XX1126 .GE. XX1127
$LISTON
$LISTOFF
98XX1127  =      0.0
$LISTON
$LISTOFF
98XX1019  =XX0976 .AND. XX1028
$LISTON
$LISTOFF
98XX0976  = .NOT. XX1054
$LISTON
$LISTOFF
98XX113558                +XX1131                     1.          1.XX0977XX1134
$LISTON
$LISTOFF
98XX1131  =       1.
$LISTON
$LISTOFF
98XX1134  =      0.0
$LISTON
$LISTOFF
98XX1136  =    0.005
$LISTON
$LISTOFF
98XX0978  = XX1135 .GT. XX1136
$LISTON
$LISTOFF
98XX114558                +XX1140                     1.          1.XX1143XX1144
$LISTON
$LISTOFF
98XX1143  = .NOT. XX0978
$LISTON
$LISTOFF
98XX1144  =      0.5
$LISTON
$LISTOFF
98XX1140  =      -1.
$LISTON
$LISTOFF
98XX1029  = XX1145 .GE. XX1146
$LISTON
$LISTOFF
98XX1146  =      0.0
$LISTON
$LISTOFF
98XX0977  = XX1002 .GE. XX1030
$LISTON
$LISTOFF
98XX1030  =    0.005
$LISTON
$LISTOFF
98XX1032  =XX1019 .AND. XX1001
$LISTON
$LISTOFF
98XX1001  =       1.
$LISTON
$LISTOFF
98XX0979  =XX1032 .AND. XX1025
$LISTON
$LISTOFF
98XX115558                +XX1150                     1.          1.XX1153XX1154
$LISTON
$LISTOFF
98XX1153  = .NOT. XX0979
$LISTON
$LISTOFF
98XX1154  =     0.01
$LISTON
$LISTOFF
98XX1150  =      -1.
$LISTON
$LISTOFF
98XX1033  = XX1155 .GE. XX1156
$LISTON
$LISTOFF
98XX1156  =      0.0
$LISTON
$LISTOFF
98XX0980  =XX1033 .AND. XX1029
$LISTON
$LISTOFF
98XX103860+XX0981 +XX1042 +XX1042                                   XX1034XX1035
$LISTON
$LISTOFF
98XX1034  = .NOT. XX0980
$LISTON
$LISTOFF
98XX1035  =      0.5
$LISTON
$LISTOFF
98XX1042  =       1.
$LISTON
$LISTOFF
98XX0981  =      -1.
$LISTON
$LISTOFF
 1XX1041                  +XX1040                     1.  .001    1.      
        1.                                                                      
                  1.                                                            
$LISTON
$LISTOFF
98XX0988  = .NOT. XX1029
$LISTON
$LISTOFF
98XX1036  =XX1033 .AND. XX0988
$LISTON
$LISTOFF
98XX103960+XX0989 +XX1043 +XX1043                                   XX1036XX1037
$LISTON
$LISTOFF
98XX1037  =      0.5
$LISTON
$LISTOFF
98XX0989  =     1.E3
$LISTON
$LISTOFF
98XX1043  =       2.
$LISTON
$LISTOFF
98XX1040  = XX1038 * XX1039
$LISTON
$LISTOFF
88XX104865                +XX0992                                   XX1044XX1047
$LISTON
$LISTOFF
98XX1044  =XX1006 .OR. XX1051
$LISTON
$LISTOFF
98XX1051  = .NOT. XX1022
$LISTON
$LISTOFF
98XX104553                +XX1038                         .001   .01
$LISTON
$LISTOFF
98XX1000  = XX1045 .GT. XX1038
$LISTON
$LISTOFF
98XX115858                +XX1161                     1.          1.XX1174XX1164
$LISTON
$LISTOFF
 0XX1165  +XX1158                                     1.          1.      
$LISTON
$LISTOFF
98XX1164  =       1.
$LISTON
$LISTOFF
98XX1166  =      -1.
$LISTON
$LISTOFF
98XX1161  = XX1166 / XX1167
$LISTON
$LISTOFF
98XX1174  = .NOT. XX1168
$LISTON
$LISTOFF
98XX1169  = .NOT. XX1165
$LISTON
$LISTOFF
98XX1046  = .NOT. XX1169
$LISTON
$LISTOFF
98XX116859                +XX1000                     1.
$LISTON
$LISTOFF
98XX1167  =      0.0
$LISTON
$LISTOFF
98XX1047  = .NOT. XX1046
$LISTON
$LISTOFF
98XX0992  =       1.
$LISTON
$LISTOFF
98XX1050  = XX1048 .GE. XX1049
$LISTON
$LISTOFF
98XX1049  =       3.
$LISTON
$LISTOFF
98XX1054  =XX1053 .OR. XX1050
$LISTON
$LISTOFF
98XX117658                +XX1179                     1.          1.XX1192XX1182
$LISTON
$LISTOFF
 0XX1183  +XX1176                                     1.          1.      
$LISTON
$LISTOFF
98XX1182  =       1.
$LISTON
$LISTOFF
98XX1184  =      -1.
$LISTON
$LISTOFF
98XX1179  = XX1184 / XX1185
$LISTON
$LISTOFF
98XX1192  = .NOT. XX1186
$LISTON
$LISTOFF
98XX1187  = .NOT. XX1183
$LISTON
$LISTOFF
98XX1052  = .NOT. XX1187
$LISTON
$LISTOFF
98XX118659                +XX1051                     1.
$LISTON
$LISTOFF
98XX1185  =     0.02
$LISTON
$LISTOFF
98XX1053  =XX1029 .AND. XX1052
$LISTON
$LISTOFF
98XX119458                +XX1197                     1.          1.XX1210XX1200
$LISTON
$LISTOFF
 0XX1201  +XX1194                                     1.          1.      
$LISTON
$LISTOFF
98XX1200  =       1.
$LISTON
$LISTOFF
98XX1202  =      -1.
$LISTON
$LISTOFF
98XX1197  = XX1202 / XX1203
$LISTON
$LISTOFF
98XX1210  = .NOT. XX1204
$LISTON
$LISTOFF
98XX1205  = .NOT. XX1201
$LISTON
$LISTOFF
98XX0502  = .NOT. XX1205
$LISTON
$LISTOFF
98XX120459                +XX1054                     1.
$LISTON
$LISTOFF
98XX1203  =    0.001
$LISTON
$LISTOFF
98XX1008  = .NOT. XX1007
$LISTON
$LISTOFF
98XX0462  = XX0542 * XX1041
$LISTON
$LISTOFF
98XX1002  = XX0319 * XX1003
$LISTON
98XX1538  =    2300.
98XX1216  =     529.
98XX1340  = XX1339 + XX1338
98XX1217  =      0.0
98XX1463  =XX1471 .OR. XX1466
27XX1454
98XX1464  =       1.
98XX1398  =      0.0
98XX144053                +XX1454                                   
98XX144153                +XX1437                                   
98XX143153                +XX1430                                   
27XX1430
 0XX1337  +XX1340                                     1.            XX1342XX1341
27XX1447
27XX1403
98XX144453                                +XX1443                   
98XX144253                +XX1403                                   
98XX144553                +XX1405                                   
11XX1346                                                           -1.      1.E3
27XX1443
27XX1405
98XX144653                +XX1447                                   
98XX144853                +XX1449                                   
98XX145153                +XX1450                                   
98XX145253                +XX1453                                   
27XX1450
27XX1453
27XX1449
98XX1467  =       1.
98XX1461  =       1.
11XX1554          2.                                               -1.      1.E3
11XX1537         .05                                               -1.      1.E3
98XX1535  =       1.
98XX1347  =   63700.
98XX1341  =      1.1
98XX1478  =      0.0
27XX1559
11XX1532          2.                                               -1.      1.E3
98XX1342  =     0.95
98XX1536  =      0.0
98XX1539  =       1.
98XX1540  =      0.6
98XX1334  =    0.005
98XX1541  =      0.7
98XX1542  =     0.15
98XX1534  =  0.00667
11XX1533          2.                                               -1.      1.E3
27XX1400
98XX1495  =       1.
98XX1500  =       1.
98XX1505  =       1.
98XX150966                +X1212B                    60.
98XX151066                +X1212C                    60.
98XX150866                +X1212A                    60.
98XX1512  = XX1508 / XX1511
98XX1507  = XX1509 / XX1511
98XX1477  = XX1510 / XX1511
C sqrt(3)
98XX1314  = 1.732051
90X1212A                                                                    1.E3
90X1212B                                                                    1.E3
90X1212C                                                                    1.E3
98XX143663        +XX1506 +XX1513 +XX1441                  -1.
98XX131766+X1212A                         -X1212B    60.
98XX1543  = XX1317 / XX1553
98XX1515  =XX1516 .OR. XX1514
98XX1299  =XX1475 .OR. XX1515
98XX1516  =XX1518 .OR. XX1517
98XX1475  =XX1463 .OR. XX1460
98XX132166+X1212B                         -X1212C    60.
98XX1544  = XX1321 / XX1553
98XX132566+X1212C                         -X1212A    60.
98XX1545  = XX1325 / XX1553
98XX1511  = XX1553 / XX1314
98XX150663        +XX1543 +XX1544 +XX1545                  -1.
98XX151363        +XX1477 +XX1507 +XX1512                  -1.
11XX1345                                                           -1.      1.E3
98XX133857+XX1217
             10.
             20.
           9999.
27XX1552
98XX1369  =      0.0
98XX1555  =   57600.
98XX1556  =   37200.
98XX1557  =    1.7E4
11XX1553  VNOM1_____                                               -1.      1.E3
27XX1437
98XX1558  =       2.
98XX1339  = XX1216 / XX1333
98XX1333  =     500.
98XX136453                                +XX1370                   
98XX135253                                +XX1351                   
27XX1336
27XX1351
27XX1370
27XX1472
27XX1473
27XX1474
27XX1462
27XX1465
27XX1468
$LISTOFF
98XX181962                +XX1400                                   XX1817XX1818
$LISTON
$LISTOFF
98XX1817  =      0.0
$LISTON
$LISTOFF
98XX182262                +XX1820                                   XX1821      
$LISTON
$LISTOFF
23XX1818          1.      .001    2.5E-5                                    1.E3
$LISTON
$LISTOFF
98XX1729  = XX1822 + XX1848
$LISTON
$LISTOFF
98XX1852  = XX1846 .GE. XX1843
$LISTON
$LISTOFF
98XX1854  =XX1821 .AND. XX1851
$LISTON
$LISTOFF
98XX1824  = XX1819 - XX1823
$LISTON
$LISTOFF
98XX182353                +XX1819                         .001   .01
$LISTON
$LISTOFF
98XX182860+XX1735 +XX1825 +XX1736                                   XX1824XX1826
$LISTON
$LISTOFF
98XX1735  =      0.0
$LISTON
$LISTOFF
98XX1825  =       1.
$LISTON
$LISTOFF
98XX1736  =       1.
$LISTON
$LISTOFF
98XX1826  =   0.0025
$LISTON
$LISTOFF
98XX1737  =    -1. * XX1826
$LISTON
$LISTOFF
98XX1827  = XX1824 .GE. XX1737
$LISTON
$LISTOFF
98XX1829  =XX1831 .AND. XX1827
$LISTON
$LISTOFF
98XX1830  =XX1829 .OR. XX1828
$LISTON
$LISTOFF
 0XX1831                  +XX1830                     1.    3.    3.      
$LISTON
$LISTOFF
98XX1832  = .NOT. XX1830
$LISTON
$LISTOFF
98XX1821  =XX1835 .OR. XX1836
$LISTON
$LISTOFF
98XX183453                +XX1832                         .001   .01
$LISTON
$LISTOFF
98XX183353                +XX1830                         .001   .01
$LISTON
$LISTOFF
98XX1835  =XX1833 .AND. XX1832
$LISTON
$LISTOFF
98XX1836  =XX1834 .AND. XX1830
$LISTON
$LISTOFF
98XX183762                +XX1823                                   XX1821      
$LISTON
$LISTOFF
98XX183853                +XX1837                         .001   .01
$LISTON
$LISTOFF
98XX183962                +XX1838                                   XX1821      
$LISTON
$LISTOFF
98XX1840  = XX1837 - XX1839
$LISTON
$LISTOFF
98XX1841  = ABS( XX1840 )
$LISTON
$LISTOFF
98XX1842  = XX1875 * XX1552
$LISTON
$LISTOFF
98XX1875  =     0.05
$LISTON
$LISTOFF
98XX1844  = XX1841 .GT. XX1842
$LISTON
$LISTOFF
98XX1847  =XX1821 .AND. XX1844
$LISTON
$LISTOFF
98XX1769  =XX1852 .AND. XX1853
$LISTON
$LISTOFF
98XX1843  =trunc(XX1729)
$LISTON
$LISTOFF
98XX1845  =trunc(1/(2*0.001*XX1880))
$LISTON
$LISTOFF
98XX188161+XX1885 +XX1872                                         1.      XX1882
$LISTON
$LISTOFF
98XX1879  =       5.
$LISTON
$LISTOFF
88XX184965                +XX1848                                   XX1821XX1850
$LISTON
$LISTOFF
98XX1848  =DELTAT/0.001
$LISTON
$LISTOFF
98XX1779  = XX1849 .GT. XX1778
$LISTON
$LISTOFF
 0XX1850                  +XX1779                     1.          1.      
$LISTON
$LISTOFF
98XX1778  =     250.
$LISTON
$LISTOFF
98XX1853  = XX1843 .GE. XX1845
$LISTON
$LISTOFF
98XX182053                +XX1849                         .001   .01
$LISTON
$LISTOFF
98XX189358                +XX1889                     1.          1.XX1847XX1892
$LISTON
$LISTOFF
98XX1889  =       1.
$LISTON
$LISTOFF
98XX1892  =      0.0
$LISTON
$LISTOFF
98XX1894  =      0.0
$LISTON
$LISTOFF
98XX1857  = XX1893 .GT. XX1894
$LISTON
$LISTOFF
98XX1880  =      55.
$LISTON
$LISTOFF
98XX1855  =XX1844 .AND. XX1854
$LISTON
$LISTOFF
98XX190358                +XX1898                     1.          1.XX1901XX1902
$LISTON
$LISTOFF
98XX1901  = .NOT. XX1855
$LISTON
$LISTOFF
98XX1902  =      0.1
$LISTON
$LISTOFF
98XX1898  =      -1.
$LISTON
$LISTOFF
98XX1877  = XX1903 .GE. XX1904
$LISTON
$LISTOFF
98XX1904  =      0.0
$LISTON
$LISTOFF
98XX1864  = .NOT. XX1877
$LISTON
$LISTOFF
98XX1856  =    -1. * XX1841
$LISTON
$LISTOFF
98XX186161+XX1856                                                 1.      XX1858
$LISTON
$LISTOFF
98XX1858  =XX1857 .AND. XX1871
$LISTON
$LISTOFF
98XX1862  = XX1876 .GE. XX1860
$LISTON
$LISTOFF
98XX1860  =      0.3
$LISTON